/*--------------------------------*- C++ -*----------------------------------*\
| =========                 |                                                 |
| \\      /  F ield         | OpenFOAM: The Open Source CFD Toolbox           |
|  \\    /   O peration     | Version:  v2012                                 |
|   \\  /    A nd           | Website:  www.openfoam.com                      |
|    \\/     M anipulation  |                                                 |
\*---------------------------------------------------------------------------*/
FoamFile
{
    version     2.0;
    format      ascii;
    class       polyBoundaryMesh;
    location    "constant/polyMesh";
    object      boundary;
}
// * * * * * * * * * * * * * * * * * * * * * * * * * * * * * * * * * * * * * //

4
(
    buoy
    {
        type            wall;
        inGroups        1(wall);
        nFaces          105;
        startFace       4097;
    }
    patchOverset
    {
        type            overset;
        inGroups        1(overset);
        nFaces          162;
        startFace       4202;
    }
    front
    {
        type            empty;
        inGroups        1(empty);
        nFaces          2101;
        startFace       4364;
    }
    back
    {
        type            empty;
        inGroups        1(empty);
        nFaces          2101;
        startFace       6465;
    }
)

// ************************************************************************* //
