/*--------------------------------*- C++ -*----------------------------------*\
| =========                 |                                                 |
| \\      /  F ield         | OpenFOAM: The Open Source CFD Toolbox           |
|  \\    /   O peration     | Version:  v1812                                 |
|   \\  /    A nd           | Web:      www.OpenFOAM.com                      |
|    \\/     M anipulation  |                                                 |
\*---------------------------------------------------------------------------*/
FoamFile
{
    version     2.0;
    format      ascii;
    class       dictionary;
    object      blockMeshDict;
}
// * * * * * * * * * * * * * * * * * * * * * * * * * * * * * * * * * * * * * //

scale   1;

vertices
(
    (-1 -0.2 -1.0)
    ( 1 -0.2 -1.0)
    ( 1  0.2 -1.0)
    (-1  0.2 -1.0)
    (-1 -0.2 1.0)
    ( 1 -0.2 1.0)
    ( 1  0.2 1.0)
    (-1  0.2 1.0)
);

blocks
(
    hex (0 1 2 3 4 5 6 7) (50 5 50) simpleGrading (1 1 1)
);

edges
(
);

boundary
(
    cubeFaces
    {
        type patch;
        faces
        (
            (0 3 2 1)
            (2 6 5 1)

            (0 4 7 3)
            (4 5 6 7)
        );
    }
    backOld
    {
        type patch;
        faces
        (
            (1 5 4 0)
        );
    }
    frontOld
    {
        type patch;
        faces
        (
            (3 7 6 2)
        );
    }
);

// ************************************************************************* //
