/*--------------------------------*- C++ -*----------------------------------*\
| =========                 |                                                 |
| \\      /  F ield         | OpenFOAM: The Open Source CFD Toolbox           |
|  \\    /   O peration     | Version:  v1812                                 |
|   \\  /    A nd           | Web:      www.OpenFOAM.com                      |
|    \\/     M anipulation  |                                                 |
\*---------------------------------------------------------------------------*/
FoamFile
{
    version     2.0;
    format      ascii;
    class       dictionary;
    object      snappyHexMeshDict;
}
// * * * * * * * * * * * * * * * * * * * * * * * * * * * * * * * * * * * * * //

// Which of the steps to run
castellatedMesh true;
snap            true;
addLayers       true;

geometry
{
    buoy.stl
    {
        type    triSurfaceMesh;
        name    buoy;
        patchInfo
        {
            type wall;
        }
    }
    frontAndBehind.stl
    {
        type    triSurfaceMesh;
        name    frontAndBehind;
        patchInfo
        {
            type patch;
        }
    }
    patchOverset.stl
    {
        type    triSurfaceMesh;
        name    patchOverset;
        patchInfo
        {
            type overset;
        }
    }
    refinementBox
    {
        type    searchableBox;
        min     (-1 -1 -1);
        max     ( 1  1  1);
    }
}


// Settings for the castellatedMesh generation.
castellatedMeshControls
{

    // Refinement parameters
    // ~~~~~~~~~~~~~~~~~~~~~
    maxLocalCells 100000;
    maxGlobalCells 2000000;
    minRefinementCells 100;
    nCellsBetweenLevels 3;

    // Explicit feature edge refinement
    // ~~~~~~~~~~~~~~~~~~~~~~~~~~~~~~~~
    features ();

    // Surface based refinement
    // ~~~~~~~~~~~~~~~~~~~~~~~~
    refinementSurfaces
    {
        buoy
        {
            level (2 2);
        }
        frontAndBehind
        {
            level (1 1);
        }
        patchOverset
        {
            level (1 1);
            patchInfo
            {
                type overset;
            }
        }
    }

    resolveFeatureAngle 30;

    // Region-wise refinement
    // ~~~~~~~~~~~~~~~~~~~~~~
    refinementRegions
    {
        refinementBox
        {
            mode inside;
            levels ((1e15 1));
        }
    }

    // Mesh selection
    // ~~~~~~~~~~~~~~
    locationInMesh (-0.4 0 0);
    allowFreeStandingZoneFaces true;
}



// Settings for the snapping.
snapControls
{
    nSmoothPatch 3;
    tolerance 4.0;
    nSolveIter 30;
    nRelaxIter 5;
}



// Settings for the layer addition.
addLayersControls
{
    relativeSizes true;

    layers
    {
        buoy
        {
            nSurfaceLayers 5;
        }
    }

    expansionRatio 1.1;
    finalLayerThickness 0.2;
    minThickness 0.0001;
    nGrow 0;

    // Advanced settings
    featureAngle 175;
    nRelaxIter 5;
    nSmoothSurfaceNormals 1;
    nSmoothNormals 3;
    nSmoothThickness 10;
    maxFaceThicknessRatio 0.5;
    maxThicknessToMedialRatio 0.3;
    minMedialAxisAngle 90;
    nBufferCellsNoExtrude 0;
    nLayerIter 50;
}



// Generic mesh quality settings. At any undoable phase these determine
// where to undo.
meshQualityControls
{
    maxNonOrtho 65;
    maxBoundarySkewness 20;
    maxInternalSkewness 4;
    maxConcave 80;
    minVol 1e-13;
    minTetQuality 1e-30;
    minArea -1;
    minTwist 0.05;
    minDeterminant 0.001;
    minFaceWeight 0.05;
    minVolRatio 0.01;
    minTriangleTwist -1;


    // Advanced
    nSmoothScale 4;
    errorReduction 0.75;
}


// Advanced
mergeTolerance 1e-6;


// ************************************************************************* //
